<?xml version="1.0" encoding="UTF-8"?>

<!-- generated on 04/13/23 11:25:01 by Eclipse SUMO netedit Version 1.8.0
<configuration xmlns:xsi="http://www.w3.org/2001/XMLSchema-instance" xsi:noNamespaceSchemaLocation="http://sumo.dlr.de/xsd/netconvertConfiguration.xsd">

    <output>
        <output-file value="C:\Users\Jacob\Downloads\sumo-1.8.0\bin\scenarios\2lanes\2lanes.net.xml"/>
    </output>

    <processing>
        <offset.disable-normalization value="true"/>
    </processing>

    <junctions>
        <no-turnarounds value="true"/>
    </junctions>

    <report>
        <aggregate-warnings value="5"/>
    </report>

</configuration>
-->

<net version="1.6" junctionCornerDetail="5" limitTurnSpeed="5.50" xmlns:xsi="http://www.w3.org/2001/XMLSchema-instance" xsi:noNamespaceSchemaLocation="http://sumo.dlr.de/xsd/net_file.xsd">

    <location netOffset="0.00,0.00" convBoundary="-400.00,0.00,400.00,0.00" origBoundary="10000000000.00,10000000000.00,-10000000000.00,-10000000000.00" projParameter="!"/>

    <edge id=":2_0" function="internal">
        <lane id=":2_0_0" index="0" speed="20.00" length="0.10" shape="-350.00,-4.80 -350.00,-4.80"/>
        <lane id=":2_0_1" index="1" speed="20.00" length="0.10" shape="-350.00,-1.60 -350.00,-1.60"/>
    </edge>
    <edge id=":3_0" function="internal">
        <lane id=":3_0_0" index="0" speed="20.00" length="0.10" shape="350.00,-4.80 350.00,-4.80"/>
        <lane id=":3_0_1" index="1" speed="20.00" length="0.10" shape="350.00,-1.60 350.00,-1.60"/>
    </edge>

    <edge id="end" from="3" to="4" priority="-1">
        <lane id="end_0" index="0" speed="20.00" length="50.00" shape="350.00,-4.80 400.00,-4.80"/>
        <lane id="end_1" index="1" speed="20.00" length="50.00" shape="350.00,-1.60 400.00,-1.60"/>
    </edge>
    <edge id="main" from="2" to="3" priority="-1">
        <lane id="main_0" index="0" speed="20.00" length="700.00" shape="-350.00,-4.80 350.00,-4.80"/>
        <lane id="main_1" index="1" speed="20.00" length="700.00" shape="-350.00,-1.60 350.00,-1.60"/>
    </edge>
    <edge id="start" from="1" to="2" priority="-1">
        <lane id="start_0" index="0" speed="20.00" length="50.00" shape="-400.00,-4.80 -350.00,-4.80"/>
        <lane id="start_1" index="1" speed="20.00" length="50.00" shape="-400.00,-1.60 -350.00,-1.60"/>
    </edge>

    <junction id="1" type="dead_end" x="-400.00" y="0.00" incLanes="" intLanes="" shape="-400.00,0.00 -400.00,-6.40"/>
    <junction id="2" type="priority" x="-350.00" y="0.00" incLanes="start_0 start_1" intLanes=":2_0_0 :2_0_1" shape="-350.00,0.00 -350.00,-6.40 -350.00,0.00">
        <request index="0" response="00" foes="00" cont="0"/>
        <request index="1" response="00" foes="00" cont="0"/>
    </junction>
    <junction id="3" type="priority" x="350.00" y="0.00" incLanes="main_0 main_1" intLanes=":3_0_0 :3_0_1" shape="350.00,0.00 350.00,-6.40 350.00,0.00">
        <request index="0" response="00" foes="00" cont="0"/>
        <request index="1" response="00" foes="00" cont="0"/>
    </junction>
    <junction id="4" type="dead_end" x="400.00" y="0.00" incLanes="end_0 end_1" intLanes="" shape="400.00,-6.40 400.00,0.00"/>

    <connection from="main" to="end" fromLane="0" toLane="0" via=":3_0_0" dir="s" state="M"/>
    <connection from="main" to="end" fromLane="1" toLane="1" via=":3_0_1" dir="s" state="M"/>
    <connection from="start" to="main" fromLane="0" toLane="0" via=":2_0_0" dir="s" state="M"/>
    <connection from="start" to="main" fromLane="1" toLane="1" via=":2_0_1" dir="s" state="M"/>

    <connection from=":2_0" to="main" fromLane="0" toLane="0" dir="s" state="M"/>
    <connection from=":2_0" to="main" fromLane="1" toLane="1" dir="s" state="M"/>
    <connection from=":3_0" to="end" fromLane="0" toLane="0" dir="s" state="M"/>
    <connection from=":3_0" to="end" fromLane="1" toLane="1" dir="s" state="M"/>

</net>
