<?xml version="1.0" encoding="UTF-8"?>

<!-- generated on 05/05/23 14:11:03 by Eclipse SUMO netedit Version 1.8.0
<configuration xmlns:xsi="http://www.w3.org/2001/XMLSchema-instance" xsi:noNamespaceSchemaLocation="http://sumo.dlr.de/xsd/netconvertConfiguration.xsd">

    <input>
        <sumo-net-file value="C:\Users\Jacob\Documents\Kurser\Thesis\code\idsse\scenarios\sideroad\sideroad.net.xml"/>
    </input>

    <output>
        <output-file value="C:\Users\Jacob\Documents\Kurser\Thesis\code\idsse\scenarios\sideroad\sideroad.net.xml"/>
    </output>

    <processing>
        <geometry.min-radius.fix.railways value="false"/>
        <geometry.max-grade.fix value="false"/>
        <offset.disable-normalization value="true"/>
        <lefthand value="false"/>
    </processing>

    <junctions>
        <no-turnarounds value="true"/>
        <junctions.corner-detail value="5"/>
        <junctions.limit-turn-speed value="5.5"/>
        <rectangular-lane-cut value="false"/>
    </junctions>

    <pedestrian>
        <walkingareas value="false"/>
    </pedestrian>

    <netedit>
        <route-files value="C:\Users\Jacob\Documents\Kurser\Thesis\code\idsse\scenarios\sideroad\sideroad_hardcoded.rou.xml"/>
    </netedit>

    <report>
        <aggregate-warnings value="5"/>
    </report>

</configuration>
-->

<routes xmlns:xsi="http://www.w3.org/2001/XMLSchema-instance" xsi:noNamespaceSchemaLocation="http://sumo.dlr.de/xsd/routes_file.xsd">
    <route edges="R1 R2 R3 R4 R5 R6" color="yellow" id="main_route"/>
    <route edges="side1 side2 side3 side4 side5 R5 R6" color="yellow" id="side_route"/>
    <trip id="attacker" depart="0.00" departSpeed="20.00" color="red" from="R1" to="R6" via="R2 R3 R4 R5"/>
    <trip id="reporter" depart="0.10" departSpeed="20.00" from="R1" to="R6" via="R2 R3 R4 R5"/>
    <trip id="normal1" depart="0.30" departSpeed="20.00" color="green" from="R1" to="R6" via="R2 R3 R4 R5"/>
    <trip id="normal2" depart="0.40" departSpeed="20.00" color="green" from="R1" to="R6" via="R2 R3 R4 R5"/>
    <trip id="normal3" depart="0.50" departSpeed="20.00" color="green" from="R1" to="R6" via="R2 R3 R4 R5"/>
    <trip id="normal4" depart="1.00" departSpeed="20.00" color="green" from="R1" to="R6" via="R2 R3 R4 R5"/>
    <trip id="normal5" depart="1.20" departSpeed="20.00" color="green" from="R1" to="R6" via="R2 R3 R4 R5"/>
    <trip id="normal6" depart="1.70" departSpeed="20.00" color="green" from="R1" to="R6" via="R2 R3 R4 R5"/>
    <trip id="normal7" depart="2.60" departSpeed="20.00" color="green" from="R1" to="R6" via="R2 R3 R4 R5"/>
    <trip id="dummy" depart="0.40" departSpeed="0" color="blue" from="side4" to="R6" via="side5 R5"/>
    
</routes>
