<?xml version="1.0" encoding="UTF-8"?>

<!-- generated on fre  2 jun 2023 17:26:47 by Eclipse SUMO netedit Version 1.8.0
<configuration xmlns:xsi="http://www.w3.org/2001/XMLSchema-instance" xsi:noNamespaceSchemaLocation="http://sumo.dlr.de/xsd/netconvertConfiguration.xsd">

    <input>
        <sumo-net-file value="/home/anders/kurser/thesis/src/plugins/idsse/scenarios/sideroad/sideroad.net.xml"/>
    </input>

    <output>
        <output-file value="/home/anders/kurser/thesis/src/plugins/idsse/scenarios/sideroad/sideroad.net.xml"/>
    </output>

    <processing>
        <geometry.min-radius.fix.railways value="false"/>
        <geometry.max-grade.fix value="false"/>
        <offset.disable-normalization value="true"/>
        <lefthand value="false"/>
    </processing>

    <junctions>
        <no-turnarounds value="true"/>
        <junctions.corner-detail value="5"/>
        <junctions.limit-turn-speed value="5.5"/>
        <rectangular-lane-cut value="false"/>
    </junctions>

    <pedestrian>
        <walkingareas value="false"/>
    </pedestrian>

    <report>
        <aggregate-warnings value="5"/>
    </report>

</configuration>
-->

<net version="1.6" junctionCornerDetail="5" limitTurnSpeed="5.50" xmlns:xsi="http://www.w3.org/2001/XMLSchema-instance" xsi:noNamespaceSchemaLocation="http://sumo.dlr.de/xsd/net_file.xsd">

    <location netOffset="0.00,0.00" convBoundary="-500.00,-80.00,500.00,50.00" origBoundary="-10000000000.00,-10000000000.00,10000000000.00,10000000000.00" projParameter="!"/>

    <edge id=":3_0" function="internal">
        <lane id=":3_0_0" index="0" speed="20.00" length="0.10" shape="150.00,48.40 150.00,48.40"/>
    </edge>
    <edge id=":4_0" function="internal">
        <lane id=":4_0_0" index="0" speed="20.00" length="0.10" shape="427.53,48.40 427.53,48.40"/>
    </edge>
    <edge id=":S1_0" function="internal">
        <lane id=":S1_0_0" index="0" speed="20.00" length="0.66" shape="-201.04,-36.22 -200.88,-36.34 -200.77,-36.42 -200.65,-36.47 -200.46,-36.53"/>
    </edge>
    <edge id=":S2_0" function="internal">
        <lane id=":S2_0_0" index="0" speed="20.00" length="0.47" shape="-50.46,-81.53 -50.33,-81.57 -50.23,-81.59 -50.14,-81.60 -50.00,-81.60"/>
    </edge>
    <edge id=":S3_0" function="internal">
        <lane id=":S3_0_0" index="0" speed="20.00" length="0.65" shape="150.00,-81.60 150.19,-81.60 150.32,-81.58 150.45,-81.54 150.63,-81.47"/>
    </edge>
    <edge id=":S4_0" function="internal">
        <lane id=":S4_0_0" index="0" speed="4.35" length="1.10" shape="255.63,-36.47 255.92,-36.34 256.11,-36.21 256.26,-36.03 256.41,-35.75"/>
    </edge>
    <edge id=":SEntry_0" function="internal">
        <lane id=":SEntry_0_0" index="0" speed="10.11" length="7.87" shape="-302.68,48.40 -300.46,48.15 -299.06,47.42 -297.84,46.24 -296.13,44.61"/>
    </edge>
    <edge id=":SEntry_1" function="internal">
        <lane id=":SEntry_1_0" index="0" speed="20.00" length="7.94" shape="-302.68,48.40 -294.74,48.40"/>
    </edge>
    <edge id=":SExit_0" function="internal">
        <lane id=":SExit_0_0" index="0" speed="7.45" length="7.65" shape="298.59,43.92 299.84,45.88 301.21,47.28 302.71,48.12 304.33,48.40"/>
    </edge>
    <edge id=":SExit_1" function="internal">
        <lane id=":SExit_1_0" index="0" speed="20.00" length="8.44" shape="295.90,48.40 304.33,48.40"/>
    </edge>
    <edge id=":gneJ13_0" function="internal">
        <lane id=":gneJ13_0_0" index="0" speed="13.89" length="0.43" shape="0.31,-1.63 0.43,-1.57 0.51,-1.54 0.60,-1.52 0.72,-1.49"/>
    </edge>
    <edge id=":gneJ8_0" function="internal">
        <lane id=":gneJ8_0_0" index="0" speed="20.00" length="0.10" shape="-430.16,48.40 -430.16,48.40"/>
    </edge>

    <edge id="R1" from="1" to="gneJ8" priority="-1">
        <lane id="R1_0" index="0" speed="20.00" length="69.84" shape="-500.00,48.40 -430.16,48.40"/>
    </edge>
    <edge id="R2" from="gneJ8" to="SEntry" priority="-1">
        <lane id="R2_0" index="0" speed="20.00" length="127.48" shape="-430.16,48.40 -302.68,48.40"/>
    </edge>
    <edge id="R3" from="SEntry" to="3" priority="-1">
        <lane id="R3_0" index="0" speed="20.00" length="444.74" shape="-294.74,48.40 150.00,48.40"/>
    </edge>
    <edge id="R4" from="3" to="SExit" priority="0">
        <lane id="R4_0" index="0" speed="20.00" length="145.90" shape="150.00,48.40 295.90,48.40"/>
    </edge>
    <edge id="R5" from="SExit" to="4" priority="-1">
        <lane id="R5_0" index="0" speed="20.00" length="123.20" shape="304.33,48.40 427.53,48.40"/>
    </edge>
    <edge id="R6" from="4" to="5" priority="-1">
        <lane id="R6_0" index="0" speed="20.00" length="72.47" shape="427.53,48.40 500.00,48.40"/>
    </edge>
    <edge id="mid1" from="gneJ12" to="gneJ13" priority="-1">
        <lane id="mid1_0" index="0" speed="13.89" length="135.36" shape="-121.21,-61.26 0.31,-1.63"/>
    </edge>
    <edge id="mid2" from="gneJ13" to="gneJ14" priority="-1">
        <lane id="mid2_0" index="0" speed="13.89" length="262.68" shape="0.72,-1.49 258.86,47.17"/>
    </edge>
    <edge id="side1" from="SEntry" to="S1" priority="-1">
        <lane id="side1_0" index="0" speed="20.00" length="124.80" shape="-296.13,44.61 -201.04,-36.22"/>
    </edge>
    <edge id="side2" from="S1" to="S2" priority="-1">
        <lane id="side2_0" index="0" speed="20.00" length="156.60" shape="-200.46,-36.53 -50.46,-81.53"/>
    </edge>
    <edge id="side3" from="S2" to="S3" priority="-1">
        <lane id="side3_0" index="0" speed="20.00" length="200.00" shape="-50.00,-81.60 150.00,-81.60"/>
    </edge>
    <edge id="side4" from="S3" to="S4" priority="-1">
        <lane id="side4_0" index="0" speed="20.00" length="114.24" shape="150.63,-81.47 255.63,-36.47"/>
    </edge>
    <edge id="side5" from="S4" to="SExit" priority="-1">
        <lane id="side5_0" index="0" speed="20.00" length="90.15" shape="256.41,-35.75 298.59,43.92"/>
    </edge>

    <junction id="1" type="dead_end" x="-500.00" y="50.00" incLanes="" intLanes="" shape="-500.00,50.00 -500.00,46.80"/>
    <junction id="3" type="priority" x="150.00" y="50.00" incLanes="R3_0" intLanes=":3_0_0" shape="150.00,50.00 150.00,46.80 150.00,50.00">
        <request index="0" response="0" foes="0" cont="0"/>
    </junction>
    <junction id="4" type="priority" x="427.53" y="50.00" incLanes="R5_0" intLanes=":4_0_0" shape="427.53,50.00 427.53,46.80 427.53,50.00">
        <request index="0" response="0" foes="0" cont="0"/>
    </junction>
    <junction id="5" type="dead_end" x="500.00" y="50.00" incLanes="R6_0" intLanes="" shape="500.00,46.80 500.00,50.00"/>
    <junction id="S1" type="priority" x="-200.00" y="-35.00" incLanes="side1_0" intLanes=":S1_0_0" shape="-200.00,-35.00 -200.92,-38.07 -201.39,-37.91 -201.54,-37.84 -201.69,-37.75 -201.86,-37.62 -202.07,-37.44">
        <request index="0" response="0" foes="0" cont="0"/>
    </junction>
    <junction id="S2" type="priority" x="-50.00" y="-80.00" incLanes="side2_0" intLanes=":S2_0_0" shape="-50.00,-80.00 -50.00,-83.20 -50.35,-83.19 -50.47,-83.18 -50.59,-83.16 -50.73,-83.12 -50.92,-83.07">
        <request index="0" response="0" foes="0" cont="0"/>
    </junction>
    <junction id="S3" type="priority" x="150.00" y="-80.00" incLanes="side3_0" intLanes=":S3_0_0" shape="150.00,-80.00 151.26,-82.94 150.81,-83.12 150.65,-83.17 150.48,-83.19 150.28,-83.20 150.00,-83.20">
        <request index="0" response="0" foes="0" cont="0"/>
    </junction>
    <junction id="S4" type="priority_stop" x="255.00" y="-35.00" incLanes="side4_0" intLanes=":S4_0_0" shape="255.00,-35.00 257.83,-36.50 257.42,-37.20 257.22,-37.42 256.99,-37.59 256.68,-37.75 256.26,-37.94">
        <request index="0" response="0" foes="0" cont="0"/>
    </junction>
    <junction id="SEntry" type="priority" x="-300.00" y="50.00" incLanes="R2_0" intLanes=":SEntry_0_0 :SEntry_1_0" shape="-294.74,50.00 -294.74,46.80 -295.44,46.69 -295.57,46.56 -295.56,46.37 -295.40,46.13 -295.09,45.83 -297.16,43.39 -298.97,45.21 -299.63,45.88 -300.36,46.38 -301.31,46.69 -302.68,46.80 -302.68,50.00">
        <request index="0" response="00" foes="00" cont="0"/>
        <request index="1" response="00" foes="00" cont="0"/>
    </junction>
    <junction id="SExit" type="priority" x="300.00" y="50.00" incLanes="side5_0 R4_0" intLanes=":SExit_0_0 :SExit_1_0" shape="304.33,50.00 304.33,46.80 302.78,46.40 302.05,45.89 301.34,45.19 300.66,44.28 300.01,43.17 297.18,44.67 297.54,45.85 297.42,46.27 297.11,46.56 296.60,46.74 295.90,46.80 295.90,50.00">
        <request index="0" response="10" foes="10" cont="0"/>
        <request index="1" response="00" foes="01" cont="0"/>
    </junction>
    <junction id="gneJ12" type="dead_end" x="-121.91" y="-59.82" incLanes="" intLanes="" shape="-121.91,-59.82 -120.50,-62.69"/>
    <junction id="gneJ13" type="priority" x="0.00" y="0.00" incLanes="mid1_0" intLanes=":gneJ13_0_0" shape="0.43,0.08 1.02,-3.06 -0.39,-0.19 -0.10,-0.05 0.00,-0.01 0.11,0.02 0.25,0.05">
        <request index="0" response="0" foes="0" cont="0"/>
    </junction>
    <junction id="gneJ14" type="dead_end" x="258.56" y="48.74" incLanes="mid2_0" intLanes="" shape="259.15,45.60 258.56,48.74"/>
    <junction id="gneJ8" type="priority" x="-430.16" y="50.00" incLanes="R1_0" intLanes=":gneJ8_0_0" shape="-430.16,50.00 -430.16,46.80 -430.16,50.00">
        <request index="0" response="0" foes="0" cont="0"/>
    </junction>

    <connection from="R1" to="R2" fromLane="0" toLane="0" via=":gneJ8_0_0" dir="s" state="M"/>
    <connection from="R2" to="side1" fromLane="0" toLane="0" via=":SEntry_0_0" dir="R" state="M"/>
    <connection from="R2" to="R3" fromLane="0" toLane="0" via=":SEntry_1_0" dir="s" state="M"/>
    <connection from="R3" to="R4" fromLane="0" toLane="0" via=":3_0_0" dir="s" state="M"/>
    <connection from="R4" to="R5" fromLane="0" toLane="0" via=":SExit_1_0" dir="s" state="M"/>
    <connection from="R5" to="R6" fromLane="0" toLane="0" via=":4_0_0" dir="s" state="M"/>
    <connection from="mid1" to="mid2" fromLane="0" toLane="0" via=":gneJ13_0_0" dir="s" state="M"/>
    <connection from="side1" to="side2" fromLane="0" toLane="0" via=":S1_0_0" dir="s" state="M"/>
    <connection from="side2" to="side3" fromLane="0" toLane="0" via=":S2_0_0" dir="s" state="M"/>
    <connection from="side3" to="side4" fromLane="0" toLane="0" via=":S3_0_0" dir="s" state="M"/>
    <connection from="side4" to="side5" fromLane="0" toLane="0" via=":S4_0_0" dir="s" state="M"/>
    <connection from="side5" to="R5" fromLane="0" toLane="0" via=":SExit_0_0" dir="r" state="m"/>

    <connection from=":3_0" to="R4" fromLane="0" toLane="0" dir="s" state="M"/>
    <connection from=":4_0" to="R6" fromLane="0" toLane="0" dir="s" state="M"/>
    <connection from=":S1_0" to="side2" fromLane="0" toLane="0" dir="s" state="M"/>
    <connection from=":S2_0" to="side3" fromLane="0" toLane="0" dir="s" state="M"/>
    <connection from=":S3_0" to="side4" fromLane="0" toLane="0" dir="s" state="M"/>
    <connection from=":S4_0" to="side5" fromLane="0" toLane="0" dir="s" state="M"/>
    <connection from=":SEntry_0" to="side1" fromLane="0" toLane="0" dir="R" state="M"/>
    <connection from=":SEntry_1" to="R3" fromLane="0" toLane="0" dir="s" state="M"/>
    <connection from=":SExit_0" to="R5" fromLane="0" toLane="0" dir="r" state="M"/>
    <connection from=":SExit_1" to="R5" fromLane="0" toLane="0" dir="s" state="M"/>
    <connection from=":gneJ13_0" to="mid2" fromLane="0" toLane="0" dir="s" state="M"/>
    <connection from=":gneJ8_0" to="R2" fromLane="0" toLane="0" dir="s" state="M"/>

</net>
