<?xml version="1.0" encoding="UTF-8"?>

<!-- generated on 04/13/23 11:27:43 by Eclipse SUMO netedit Version 1.8.0
<configuration xmlns:xsi="http://www.w3.org/2001/XMLSchema-instance" xsi:noNamespaceSchemaLocation="http://sumo.dlr.de/xsd/netconvertConfiguration.xsd">

    <input>
        <sumo-net-file value="C:\Users\Jacob\Downloads\sumo-1.8.0\bin\scenarios\2lanes\2lanes.net.xml"/>
    </input>

    <output>
        <output-file value="C:\Users\Jacob\Downloads\sumo-1.8.0\bin\scenarios\2lanes\2lanes.net.xml"/>
    </output>

    <processing>
        <geometry.min-radius.fix.railways value="false"/>
        <geometry.max-grade.fix value="false"/>
        <offset.disable-normalization value="true"/>
        <lefthand value="false"/>
    </processing>

    <junctions>
        <no-turnarounds value="true"/>
        <junctions.corner-detail value="5"/>
        <junctions.limit-turn-speed value="5.5"/>
        <rectangular-lane-cut value="false"/>
    </junctions>

    <pedestrian>
        <walkingareas value="false"/>
    </pedestrian>

    <netedit>
        <route-files value="C:\Users\Jacob\Downloads\sumo-1.8.0\bin\scenarios\2lanes\2lanes.rou.xml"/>
    </netedit>

    <report>
        <aggregate-warnings value="5"/>
    </report>

</configuration>
-->

<routes xmlns:xsi="http://www.w3.org/2001/XMLSchema-instance" xsi:noNamespaceSchemaLocation="http://sumo.dlr.de/xsd/routes_file.xsd">
    <route edges="start main end" color="yellow" id="route_0"/>
    <trip id="attacker" depart="0.00" color="red" from="start" to="end"/>
    <trip id="reporter" depart="1.00" from="start" to="end"/>
    <trip id="normal0" depart="2.00" departLane="0" color="green" from="start" to="end"/>
    <trip id="normal1" depart="2.00" departLane="1" color="green" from="start" to="end"/>
</routes>
