<?xml version="1.0" encoding="UTF-8"?>

<!-- generated on 04/13/23 09:51:41 by Eclipse SUMO netedit Version 1.8.0
<configuration xmlns:xsi="http://www.w3.org/2001/XMLSchema-instance" xsi:noNamespaceSchemaLocation="http://sumo.dlr.de/xsd/netconvertConfiguration.xsd">

    <input>
        <sumo-net-file value="C:\Users\Jacob\Downloads\sumo-1.8.0\bin\saves\helloWorld.net.xml"/>
    </input>

    <output>
        <output-file value="C:\Users\Jacob\Downloads\sumo-1.8.0\bin\saves\helloWorld.net.xml"/>
    </output>

    <processing>
        <geometry.min-radius.fix.railways value="false"/>
        <geometry.max-grade.fix value="false"/>
        <offset.disable-normalization value="true"/>
        <lefthand value="false"/>
    </processing>

    <junctions>
        <no-turnarounds value="true"/>
        <junctions.corner-detail value="5"/>
        <junctions.limit-turn-speed value="5.5"/>
        <rectangular-lane-cut value="false"/>
    </junctions>

    <pedestrian>
        <walkingareas value="false"/>
    </pedestrian>

    <report>
        <aggregate-warnings value="5"/>
    </report>

</configuration>
-->

<net version="1.6" junctionCornerDetail="5" limitTurnSpeed="5.50" xmlns:xsi="http://www.w3.org/2001/XMLSchema-instance" xsi:noNamespaceSchemaLocation="http://sumo.dlr.de/xsd/net_file.xsd">

    <location netOffset="0.00,0.00" convBoundary="-500.00,-80.00,500.00,50.00" origBoundary="-10000000000.00,-10000000000.00,10000000000.00,10000000000.00" projParameter="!"/>

    <edge id=":3_0" function="internal">
        <lane id=":3_0_0" index="0" speed="20.00" length="0.10" shape="0.00,48.40 0.00,48.40"/>
    </edge>
    <edge id=":4_0" function="internal">
        <lane id=":4_0_0" index="0" speed="20.00" length="0.10" shape="427.53,48.40 427.53,48.40"/>
    </edge>
    <edge id=":S1_0" function="internal">
        <lane id=":S1_0_0" index="0" speed="20.00" length="0.66" shape="-201.04,-36.22 -200.88,-36.34 -200.77,-36.42 -200.65,-36.47 -200.46,-36.53"/>
    </edge>
    <edge id=":S2_0" function="internal">
        <lane id=":S2_0_0" index="0" speed="20.00" length="0.47" shape="-50.46,-81.53 -50.33,-81.57 -50.23,-81.59 -50.14,-81.60 -50.00,-81.60"/>
    </edge>
    <edge id=":S3_0" function="internal">
        <lane id=":S3_0_0" index="0" speed="20.00" length="0.65" shape="150.00,-81.60 150.19,-81.60 150.32,-81.58 150.45,-81.54 150.63,-81.47"/>
    </edge>
    <edge id=":S4_0" function="internal">
        <lane id=":S4_0_0" index="0" speed="4.33" length="1.13" shape="255.63,-36.47 255.93,-36.33 256.12,-36.20 256.27,-36.02 256.43,-35.73"/>
    </edge>
    <edge id=":SEntry_0" function="internal">
        <lane id=":SEntry_0_0" index="0" speed="10.11" length="7.87" shape="-302.68,48.40 -300.46,48.15 -299.06,47.42 -297.84,46.24 -296.13,44.61"/>
    </edge>
    <edge id=":SEntry_1" function="internal">
        <lane id=":SEntry_1_0" index="0" speed="20.00" length="7.94" shape="-302.68,48.40 -294.74,48.40"/>
    </edge>
    <edge id=":SExit_0" function="internal">
        <lane id=":SExit_0_0" index="0" speed="7.40" length="7.67" shape="297.02,43.89 298.24,45.86 299.60,47.27 301.11,48.12 302.75,48.40"/>
    </edge>
    <edge id=":SExit_1" function="internal">
        <lane id=":SExit_1_0" index="0" speed="20.00" length="8.49" shape="294.26,48.40 302.75,48.40"/>
    </edge>
    <edge id=":gneJ8_0" function="internal">
        <lane id=":gneJ8_0_0" index="0" speed="20.00" length="0.10" shape="-430.16,48.40 -430.16,48.40"/>
    </edge>

    <edge id="2toSEntry" from="gneJ8" to="SEntry" priority="-1">
        <lane id="2toSEntry_0" index="0" speed="20.00" length="127.48" shape="-430.16,48.40 -302.68,48.40"/>
    </edge>
    <edge id="3toSexit" from="3" to="SExit" priority="0">
        <lane id="3toSexit_0" index="0" speed="20.00" length="294.26" shape="0.00,48.40 294.26,48.40"/>
    </edge>
    <edge id="Entry" from="1" to="gneJ8" priority="-1">
        <lane id="Entry_0" index="0" speed="20.00" length="69.84" shape="-500.00,48.40 -430.16,48.40"/>
    </edge>
    <edge id="Exit" from="4" to="5" priority="-1">
        <lane id="Exit_0" index="0" speed="20.00" length="72.47" shape="427.53,48.40 500.00,48.40"/>
    </edge>
    <edge id="S1toS2" from="S1" to="S2" priority="-1">
        <lane id="S1toS2_0" index="0" speed="20.00" length="156.60" shape="-200.46,-36.53 -50.46,-81.53"/>
    </edge>
    <edge id="S2toS3" from="S2" to="S3" priority="-1">
        <lane id="S2toS3_0" index="0" speed="20.00" length="200.00" shape="-50.00,-81.60 150.00,-81.60"/>
    </edge>
    <edge id="S3toS4" from="S3" to="S4" priority="-1">
        <lane id="S3toS4_0" index="0" speed="20.00" length="114.24" shape="150.63,-81.47 255.63,-36.47"/>
    </edge>
    <edge id="S4toSExit" from="S4" to="SExit" priority="-1">
        <lane id="S4toSExit_0" index="0" speed="20.00" length="89.37" shape="256.43,-35.73 297.02,43.89"/>
    </edge>
    <edge id="SEntrytoS1" from="SEntry" to="S1" priority="-1">
        <lane id="SEntrytoS1_0" index="0" speed="20.00" length="124.80" shape="-296.13,44.61 -201.04,-36.22"/>
    </edge>
    <edge id="SExitto4" from="SExit" to="4" priority="-1">
        <lane id="SExitto4_0" index="0" speed="20.00" length="124.78" shape="302.75,48.40 427.53,48.40"/>
    </edge>
    <edge id="Sentryto3" from="SEntry" to="3" priority="-1">
        <lane id="Sentryto3_0" index="0" speed="20.00" length="294.74" shape="-294.74,48.40 0.00,48.40"/>
    </edge>

    <junction id="1" type="dead_end" x="-500.00" y="50.00" incLanes="" intLanes="" shape="-500.00,50.00 -500.00,46.80"/>
    <junction id="3" type="priority" x="0.00" y="50.00" incLanes="Sentryto3_0" intLanes=":3_0_0" shape="0.00,50.00 0.00,46.80 0.00,50.00">
        <request index="0" response="0" foes="0" cont="0"/>
    </junction>
    <junction id="4" type="priority" x="427.53" y="50.00" incLanes="SExitto4_0" intLanes=":4_0_0" shape="427.53,50.00 427.53,46.80 427.53,50.00">
        <request index="0" response="0" foes="0" cont="0"/>
    </junction>
    <junction id="5" type="dead_end" x="500.00" y="50.00" incLanes="Exit_0" intLanes="" shape="500.00,46.80 500.00,50.00"/>
    <junction id="S1" type="priority" x="-200.00" y="-35.00" incLanes="SEntrytoS1_0" intLanes=":S1_0_0" shape="-200.00,-35.00 -200.92,-38.07 -201.39,-37.91 -201.54,-37.84 -201.69,-37.75 -201.86,-37.62 -202.07,-37.44">
        <request index="0" response="0" foes="0" cont="0"/>
    </junction>
    <junction id="S2" type="priority" x="-50.00" y="-80.00" incLanes="S1toS2_0" intLanes=":S2_0_0" shape="-50.00,-80.00 -50.00,-83.20 -50.35,-83.19 -50.47,-83.18 -50.59,-83.16 -50.73,-83.12 -50.92,-83.07">
        <request index="0" response="0" foes="0" cont="0"/>
    </junction>
    <junction id="S3" type="priority" x="150.00" y="-80.00" incLanes="S2toS3_0" intLanes=":S3_0_0" shape="150.00,-80.00 151.26,-82.94 150.81,-83.12 150.65,-83.17 150.48,-83.19 150.28,-83.20 150.00,-83.20">
        <request index="0" response="0" foes="0" cont="0"/>
    </junction>
    <junction id="S4" type="priority_stop" x="255.00" y="-35.00" incLanes="S3toS4_0" intLanes=":S4_0_0" shape="255.00,-35.00 257.85,-36.45 257.44,-37.18 257.25,-37.40 257.01,-37.58 256.69,-37.75 256.26,-37.94">
        <request index="0" response="0" foes="0" cont="0"/>
    </junction>
    <junction id="SEntry" type="priority" x="-300.00" y="50.00" incLanes="2toSEntry_0" intLanes=":SEntry_0_0 :SEntry_1_0" shape="-294.74,50.00 -294.74,46.80 -295.44,46.69 -295.57,46.56 -295.56,46.37 -295.40,46.13 -295.09,45.83 -297.16,43.39 -298.97,45.21 -299.63,45.88 -300.36,46.38 -301.31,46.69 -302.68,46.80 -302.68,50.00">
        <request index="0" response="00" foes="00" cont="0"/>
        <request index="1" response="00" foes="00" cont="0"/>
    </junction>
    <junction id="SExit" type="priority" x="298.34" y="50.00" incLanes="S4toSExit_0 3toSexit_0" intLanes=":SExit_0_0 :SExit_1_0" shape="302.75,50.00 302.75,46.80 301.18,46.40 300.45,45.89 299.75,45.18 299.08,44.27 298.45,43.16 295.60,44.62 295.94,45.83 295.82,46.25 295.50,46.56 294.98,46.74 294.26,46.80 294.26,50.00">
        <request index="0" response="10" foes="10" cont="0"/>
        <request index="1" response="00" foes="01" cont="0"/>
    </junction>
    <junction id="gneJ8" type="priority" x="-430.16" y="50.00" incLanes="Entry_0" intLanes=":gneJ8_0_0" shape="-430.16,50.00 -430.16,46.80 -430.16,50.00">
        <request index="0" response="0" foes="0" cont="0"/>
    </junction>

    <connection from="2toSEntry" to="SEntrytoS1" fromLane="0" toLane="0" via=":SEntry_0_0" dir="R" state="M"/>
    <connection from="2toSEntry" to="Sentryto3" fromLane="0" toLane="0" via=":SEntry_1_0" dir="s" state="M"/>
    <connection from="3toSexit" to="SExitto4" fromLane="0" toLane="0" via=":SExit_1_0" dir="s" state="M"/>
    <connection from="Entry" to="2toSEntry" fromLane="0" toLane="0" via=":gneJ8_0_0" dir="s" state="M"/>
    <connection from="S1toS2" to="S2toS3" fromLane="0" toLane="0" via=":S2_0_0" dir="s" state="M"/>
    <connection from="S2toS3" to="S3toS4" fromLane="0" toLane="0" via=":S3_0_0" dir="s" state="M"/>
    <connection from="S3toS4" to="S4toSExit" fromLane="0" toLane="0" via=":S4_0_0" dir="s" state="M"/>
    <connection from="S4toSExit" to="SExitto4" fromLane="0" toLane="0" via=":SExit_0_0" dir="r" state="m"/>
    <connection from="SEntrytoS1" to="S1toS2" fromLane="0" toLane="0" via=":S1_0_0" dir="s" state="M"/>
    <connection from="SExitto4" to="Exit" fromLane="0" toLane="0" via=":4_0_0" dir="s" state="M"/>
    <connection from="Sentryto3" to="3toSexit" fromLane="0" toLane="0" via=":3_0_0" dir="s" state="M"/>

    <connection from=":3_0" to="3toSexit" fromLane="0" toLane="0" dir="s" state="M"/>
    <connection from=":4_0" to="Exit" fromLane="0" toLane="0" dir="s" state="M"/>
    <connection from=":S1_0" to="S1toS2" fromLane="0" toLane="0" dir="s" state="M"/>
    <connection from=":S2_0" to="S2toS3" fromLane="0" toLane="0" dir="s" state="M"/>
    <connection from=":S3_0" to="S3toS4" fromLane="0" toLane="0" dir="s" state="M"/>
    <connection from=":S4_0" to="S4toSExit" fromLane="0" toLane="0" dir="s" state="M"/>
    <connection from=":SEntry_0" to="SEntrytoS1" fromLane="0" toLane="0" dir="R" state="M"/>
    <connection from=":SEntry_1" to="Sentryto3" fromLane="0" toLane="0" dir="s" state="M"/>
    <connection from=":SExit_0" to="SExitto4" fromLane="0" toLane="0" dir="r" state="M"/>
    <connection from=":SExit_1" to="SExitto4" fromLane="0" toLane="0" dir="s" state="M"/>
    <connection from=":gneJ8_0" to="2toSEntry" fromLane="0" toLane="0" dir="s" state="M"/>

</net>
