<?xml version="1.0" encoding="UTF-8"?>

<!-- generated on 04/13/23 10:51:16 by Eclipse SUMO netedit Version 1.8.0
<configuration xmlns:xsi="http://www.w3.org/2001/XMLSchema-instance" xsi:noNamespaceSchemaLocation="http://sumo.dlr.de/xsd/netconvertConfiguration.xsd">

    <input>
        <sumo-net-file value="C:\Users\Jacob\Downloads\sumo-1.8.0\bin\scenarios\sideroad\scenario_sideroad.net.xml"/>
    </input>

    <output>
        <output-file value="C:\Users\Jacob\Downloads\sumo-1.8.0\bin\scenarios\sideroad\scenario_sideroad.net.xml"/>
    </output>

    <processing>
        <geometry.min-radius.fix.railways value="false"/>
        <geometry.max-grade.fix value="false"/>
        <offset.disable-normalization value="true"/>
        <lefthand value="false"/>
    </processing>

    <junctions>
        <no-turnarounds value="true"/>
        <junctions.corner-detail value="5"/>
        <junctions.limit-turn-speed value="5.5"/>
        <rectangular-lane-cut value="false"/>
    </junctions>

    <pedestrian>
        <walkingareas value="false"/>
    </pedestrian>

    <netedit>
        <route-files value="C:\Users\Jacob\Downloads\sumo-1.8.0\bin\scenarios\sideroad\scenario_hardcoded_sideroad.rou.xml"/>
    </netedit>

    <report>
        <aggregate-warnings value="5"/>
    </report>

</configuration>
-->

<routes xmlns:xsi="http://www.w3.org/2001/XMLSchema-instance" xsi:noNamespaceSchemaLocation="http://sumo.dlr.de/xsd/routes_file.xsd">
    <trip id="attacker" depart="0.00" color="red" route="main_route"/>
    <trip id="reporter" depart="0.10" from="Entry" to="Exit"/>
    <route edges="main1 main2" color="yellow" id="main_route"/>
    <route edges="side1 side2 side3 side4 side5" color="yellow" id="side_route"/>
    <trip id="normal1" depart="0.30" color="green" from="Entry" to="Exit"/>
    <trip id="normal2" depart="0.40" color="green" from="Entry" to="Exit"/>
    <trip id="normal3" depart="0.50" color="green" from="Entry" to="Exit"/>
    <trip id="normal4" depart="1.00" color="green" from="Entry" to="Exit"/>
    <trip id="normal5" depart="1.20" color="green" from="Entry" to="Exit"/>
    <trip id="normal6" depart="1.70" color="green" from="Entry" to="Exit"/>
    <trip id="normal7" depart="2.60" color="green" from="Entry" to="Exit"/>
</routes>
