<?xml version="1.0" encoding="UTF-8"?>

<!-- generated on 04/13/23 14:06:20 by Eclipse SUMO netedit Version 1.8.0
<configuration xmlns:xsi="http://www.w3.org/2001/XMLSchema-instance" xsi:noNamespaceSchemaLocation="http://sumo.dlr.de/xsd/netconvertConfiguration.xsd">

    <input>
        <sumo-net-file value="C:\Users\Jacob\Downloads\sumo-1.8.0\bin\scenarios\sideroad\scenario_sideroad.net.xml"/>
    </input>

    <output>
        <output-file value="C:\Users\Jacob\Downloads\sumo-1.8.0\bin\scenarios\sideroad\scenario_sideroad.net.xml"/>
    </output>

    <processing>
        <geometry.min-radius.fix.railways value="false"/>
        <geometry.max-grade.fix value="false"/>
        <offset.disable-normalization value="true"/>
        <lefthand value="false"/>
    </processing>

    <junctions>
        <no-turnarounds value="true"/>
        <junctions.corner-detail value="5"/>
        <junctions.limit-turn-speed value="5.5"/>
        <rectangular-lane-cut value="false"/>
    </junctions>

    <pedestrian>
        <walkingareas value="false"/>
    </pedestrian>

    <netedit>
        <route-files value="C:\Users\Jacob\Downloads\sumo-1.8.0\bin\scenarios\sideroad\scenario_sidoroad.rou.xml"/>
    </netedit>

    <report>
        <aggregate-warnings value="5"/>
    </report>

</configuration>
-->

<routes xmlns:xsi="http://www.w3.org/2001/XMLSchema-instance" xsi:noNamespaceSchemaLocation="http://sumo.dlr.de/xsd/routes_file.xsd">
    <vType id="attack_car" maxSpeed="15.00" speedFactor="normc(0.90,0.20,0.20,2.00)" vClass="passenger" sigma="0.5"/>
    <vType id="normal_car" maxSpeed="20.00" speedFactor="normc(0.90,0.20,0.20,2.00)" vClass="passenger" sigma="0.5"/>
    <route edges="Entry 2toSEntry Sentryto3 3toSexit SExitto4 Exit" color="yellow" id="route_main"/>
    <route edges="SEntrytoS1 S1toS2 S2toS3 S3toS4 S4toSExit" color="yellow" id="route_side"/>
    <flow id="attacker" type="attack_car" begin="0.00" departSpeed="0.00" color="red" from="Entry" to="Exit" number="50" probability="0.05"/>
    <flow id="normal" type="normal_car" begin="0.00" departSpeed="0.00" color="green" from="Entry" to="Exit" number="1000" probability="0.95"/>
    <flow id="reporter" type="normal_car" begin="0.00" departSpeed="0.00" from="Entry" to="Exit" number="30" probability="0.03"/>
</routes>
