<?xml version="1.0" encoding="UTF-8"?>

<!-- generated on 04/14/23 10:44:40 by Eclipse SUMO netedit Version 1.8.0
<configuration xmlns:xsi="http://www.w3.org/2001/XMLSchema-instance" xsi:noNamespaceSchemaLocation="http://sumo.dlr.de/xsd/netconvertConfiguration.xsd">

    <input>
        <sumo-net-file value="C:\Users\Jacob\Downloads\sumo-1.8.0\bin\scenarios\complex-sideroads.net.xml"/>
    </input>

    <output>
        <output-file value="C:\Users\Jacob\Downloads\sumo-1.8.0\bin\scenarios\complex-sideroads.net.xml"/>
    </output>

    <processing>
        <geometry.min-radius.fix.railways value="false"/>
        <geometry.max-grade.fix value="false"/>
        <offset.disable-normalization value="true"/>
        <lefthand value="false"/>
    </processing>

    <junctions>
        <no-turnarounds value="true"/>
        <junctions.corner-detail value="5"/>
        <junctions.limit-turn-speed value="5.5"/>
        <rectangular-lane-cut value="false"/>
    </junctions>

    <pedestrian>
        <walkingareas value="false"/>
    </pedestrian>

    <netedit>
        <route-files value="C:\Users\Jacob\Downloads\sumo-1.8.0\bin\scenarios\complex-sideroads.rou.xml"/>
    </netedit>

    <report>
        <aggregate-warnings value="5"/>
    </report>

</configuration>
-->

<net version="1.6" junctionCornerDetail="5" limitTurnSpeed="5.50" xmlns:xsi="http://www.w3.org/2001/XMLSchema-instance" xsi:noNamespaceSchemaLocation="http://sumo.dlr.de/xsd/net_file.xsd">

    <location netOffset="0.00,0.00" convBoundary="-500.00,-100.00,500.00,60.00" origBoundary="-10000000000.00,-10000000000.00,10000000000.00,10000000000.00" projParameter="!"/>

    <edge id=":gneJ1_0" function="internal">
        <lane id=":gneJ1_0_0" index="0" speed="25.00" length="0.10" shape="-400.00,-1.60 -400.00,-1.60"/>
    </edge>
    <edge id=":gneJ2_0" function="internal">
        <lane id=":gneJ2_0_0" index="0" speed="6.51" length="9.03" shape="-207.20,-1.60 -204.75,-1.95 -203.00,-3.00 -201.95,-4.75 -201.60,-7.20"/>
    </edge>
    <edge id=":gneJ2_1" function="internal">
        <lane id=":gneJ2_1_0" index="0" speed="22.50" length="14.40" shape="-207.20,-1.60 -192.80,-1.60"/>
    </edge>
    <edge id=":gneJ2_2" function="internal">
        <lane id=":gneJ2_2_0" index="0" speed="7.33" length="11.73" shape="-207.20,-1.60 -203.35,-1.25 -200.60,-0.20 -198.95,1.55 -198.40,4.00"/>
    </edge>
    <edge id=":gneJ3_0" function="internal">
        <lane id=":gneJ3_0_0" index="0" speed="20.00" length="7.91" shape="43.96,-1.60 51.87,-1.60"/>
    </edge>
    <edge id=":gneJ3_1" function="internal">
        <lane id=":gneJ3_1_0" index="0" speed="8.43" length="7.45" shape="45.86,2.46 47.51,0.69 49.06,-0.58 50.51,-1.35 51.87,-1.60"/>
    </edge>
    <edge id=":gneJ4_0" function="internal">
        <lane id=":gneJ4_0_0" index="0" speed="6.51" length="9.03" shape="251.60,-7.20 251.95,-4.75 253.00,-3.00 254.75,-1.95 257.20,-1.60"/>
    </edge>
    <edge id=":gneJ4_1" function="internal">
        <lane id=":gneJ4_1_0" index="0" speed="22.50" length="11.20" shape="246.00,-1.60 257.20,-1.60"/>
    </edge>
    <edge id=":gneJ5_0" function="internal">
        <lane id=":gneJ5_0_0" index="0" speed="25.00" length="0.10" shape="400.00,-1.60 400.00,-1.60"/>
    </edge>
    <edge id=":gneJ6_0" function="internal">
        <lane id=":gneJ6_0_0" index="0" speed="3.90" length="2.58" shape="-198.40,56.80 -198.30,57.50 -198.00,58.00 -197.50,58.30 -196.80,58.40"/>
    </edge>
    <edge id=":gneJ7_0" function="internal">
        <lane id=":gneJ7_0_0" index="0" speed="4.12" length="1.40" shape="-1.50,58.40 -1.14,58.36 -0.82,58.26 -0.53,58.08 -0.27,57.82"/>
    </edge>
    <edge id=":gneJ8_0" function="internal">
        <lane id=":gneJ8_0_0" index="0" speed="3.90" length="2.90" shape="-201.60,-100.00 -201.48,-100.81 -201.13,-101.34 -200.55,-101.60 -199.74,-101.58"/>
    </edge>
    <edge id=":gneJ9_0" function="internal">
        <lane id=":gneJ9_0_0" index="0" speed="3.92" length="2.28" shape="250.26,-26.58 250.85,-26.40 251.27,-26.07 251.52,-25.61 251.60,-25.00"/>
    </edge>

    <edge id="end" from="gneJ5" to="gneJ13" priority="-1">
        <lane id="end_0" index="0" speed="25.00" length="100.00" shape="400.00,-1.60 500.00,-1.60"/>
    </edge>
    <edge id="gneE0" from="gneJ1" to="gneJ2" priority="-1">
        <lane id="gneE0_0" index="0" speed="25.00" length="192.80" shape="-400.00,-1.60 -207.20,-1.60"/>
    </edge>
    <edge id="gneE1" from="gneJ2" to="gneJ3" priority="1">
        <lane id="gneE1_0" index="0" speed="20.00" length="236.76" shape="-192.80,-1.60 43.96,-1.60"/>
    </edge>
    <edge id="gneE2" from="gneJ3" to="gneJ4" priority="1">
        <lane id="gneE2_0" index="0" speed="20.00" length="194.13" shape="51.87,-1.60 246.00,-1.60"/>
    </edge>
    <edge id="gneE3" from="gneJ4" to="gneJ5" priority="-1">
        <lane id="gneE3_0" index="0" speed="25.00" length="142.80" shape="257.20,-1.60 400.00,-1.60"/>
    </edge>
    <edge id="gneE4" from="gneJ6" to="gneJ7" priority="-1">
        <lane id="gneE4_0" index="0" speed="25.00" length="195.30" shape="-196.80,58.40 -1.50,58.40"/>
    </edge>
    <edge id="gneE5" from="gneJ8" to="gneJ9" priority="-1">
        <lane id="gneE5_0" index="0" speed="30.00" length="456.21" shape="-199.74,-101.58 250.26,-26.58"/>
    </edge>
    <edge id="gneE6" from="gneJ2" to="gneJ8" priority="-1">
        <lane id="gneE6_0" index="0" speed="30.00" length="92.80" shape="-201.60,-7.20 -201.60,-100.00"/>
    </edge>
    <edge id="gneE7" from="gneJ2" to="gneJ6" priority="-1">
        <lane id="gneE7_0" index="0" speed="25.00" length="52.80" shape="-198.40,4.00 -198.40,56.80"/>
    </edge>
    <edge id="gneE8" from="gneJ7" to="gneJ3" priority="-1">
        <lane id="gneE8_0" index="0" speed="25.00" length="72.06" shape="-0.27,57.82 45.86,2.46"/>
    </edge>
    <edge id="gneE9" from="gneJ9" to="gneJ4" priority="0">
        <lane id="gneE9_0" index="0" speed="30.00" length="17.80" shape="251.60,-25.00 251.60,-7.20"/>
    </edge>
    <edge id="start" from="gneJ12" to="gneJ1" priority="-1">
        <lane id="start_0" index="0" speed="25.00" length="100.00" shape="-500.00,-1.60 -400.00,-1.60"/>
    </edge>

    <junction id="gneJ1" type="priority" x="-400.00" y="0.00" incLanes="start_0" intLanes=":gneJ1_0_0" shape="-400.00,0.00 -400.00,-3.20 -400.00,0.00">
        <request index="0" response="0" foes="0" cont="0"/>
    </junction>
    <junction id="gneJ12" type="dead_end" x="-500.00" y="0.00" incLanes="" intLanes="" shape="-500.00,0.00 -500.00,-3.20"/>
    <junction id="gneJ13" type="dead_end" x="500.00" y="0.00" incLanes="end_0" intLanes="" shape="500.00,-3.20 500.00,0.00"/>
    <junction id="gneJ2" type="priority" x="-200.00" y="0.00" incLanes="gneE0_0" intLanes=":gneJ2_0_0 :gneJ2_1_0 :gneJ2_2_0" shape="-200.00,4.00 -196.80,4.00 -196.36,1.78 -195.80,1.00 -195.02,0.44 -194.02,0.11 -192.80,0.00 -192.80,-3.20 -195.00,-3.31 -196.80,-3.64 -198.20,-4.20 -199.20,-4.98 -199.80,-5.98 -200.00,-7.20 -203.20,-7.20 -203.64,-4.98 -204.20,-4.20 -204.98,-3.64 -205.98,-3.31 -207.20,-3.20 -207.20,0.00 -205.00,0.11 -203.20,0.44 -201.80,1.00 -200.80,1.78 -200.20,2.78">
        <request index="0" response="000" foes="000" cont="0"/>
        <request index="1" response="000" foes="000" cont="0"/>
        <request index="2" response="000" foes="000" cont="0"/>
    </junction>
    <junction id="gneJ3" type="priority" x="50.00" y="0.00" incLanes="gneE1_0 gneE8_0" intLanes=":gneJ3_0_0 :gneJ3_1_0" shape="51.87,0.00 51.87,-3.20 43.96,-3.20 43.96,0.00 44.87,0.16 45.07,0.36 45.09,0.64 44.95,1.00 44.64,1.44 47.09,3.49 48.92,1.55 49.74,0.87 50.51,0.39 51.22,0.10">
        <request index="0" response="00" foes="10" cont="0"/>
        <request index="1" response="01" foes="01" cont="0"/>
    </junction>
    <junction id="gneJ4" type="priority" x="250.00" y="0.00" incLanes="gneE9_0 gneE2_0" intLanes=":gneJ4_0_0 :gneJ4_1_0" shape="257.20,0.00 257.20,-3.20 254.98,-3.64 254.20,-4.20 253.64,-4.98 253.31,-5.98 253.20,-7.20 250.00,-7.20 249.56,-4.98 249.00,-4.20 248.22,-3.64 247.22,-3.31 246.00,-3.20 246.00,0.00" rightOfWay="edgePriority">
        <request index="0" response="10" foes="10" cont="0"/>
        <request index="1" response="00" foes="01" cont="0"/>
    </junction>
    <junction id="gneJ5" type="priority" x="400.00" y="0.00" incLanes="gneE3_0" intLanes=":gneJ5_0_0" shape="400.00,0.00 400.00,-3.20 400.00,0.00">
        <request index="0" response="0" foes="0" cont="0"/>
    </junction>
    <junction id="gneJ6" type="priority" x="-200.00" y="60.00" incLanes="gneE7_0" intLanes=":gneJ6_0_0" shape="-196.80,60.00 -196.80,56.80 -200.00,56.80 -199.64,58.58 -199.20,59.20 -198.58,59.64 -197.78,59.91">
        <request index="0" response="0" foes="0" cont="0"/>
    </junction>
    <junction id="gneJ7" type="priority" x="0.00" y="60.00" incLanes="gneE4_0" intLanes=":gneJ7_0_0" shape="0.96,58.85 -1.50,56.80 -1.50,60.00 -0.56,59.87 -0.13,59.71 0.26,59.49 0.62,59.20">
        <request index="0" response="0" foes="0" cont="0"/>
    </junction>
    <junction id="gneJ8" type="priority" x="-200.00" y="-100.00" incLanes="gneE6_0" intLanes=":gneJ8_0_0" shape="-203.20,-100.00 -200.00,-100.00 -199.47,-103.16 -201.54,-103.08 -202.27,-102.68 -202.79,-102.03 -203.10,-101.14">
        <request index="0" response="0" foes="0" cont="0"/>
    </junction>
    <junction id="gneJ9" type="priority" x="250.00" y="-25.00" incLanes="gneE5_0" intLanes=":gneJ9_0_0" shape="250.00,-25.00 253.20,-25.00 252.90,-26.56 252.53,-27.14 252.01,-27.61 251.34,-27.94 250.53,-28.16">
        <request index="0" response="0" foes="0" cont="0"/>
    </junction>

    <connection from="gneE0" to="gneE6" fromLane="0" toLane="0" via=":gneJ2_0_0" dir="r" state="M"/>
    <connection from="gneE0" to="gneE1" fromLane="0" toLane="0" via=":gneJ2_1_0" dir="s" state="M"/>
    <connection from="gneE0" to="gneE7" fromLane="0" toLane="0" via=":gneJ2_2_0" dir="l" state="M"/>
    <connection from="gneE1" to="gneE2" fromLane="0" toLane="0" pass="1" via=":gneJ3_0_0" dir="s" state="M"/>
    <connection from="gneE2" to="gneE3" fromLane="0" toLane="0" via=":gneJ4_1_0" dir="s" state="M"/>
    <connection from="gneE3" to="end" fromLane="0" toLane="0" via=":gneJ5_0_0" dir="s" state="M"/>
    <connection from="gneE4" to="gneE8" fromLane="0" toLane="0" via=":gneJ7_0_0" dir="r" state="M"/>
    <connection from="gneE5" to="gneE9" fromLane="0" toLane="0" via=":gneJ9_0_0" dir="l" state="M"/>
    <connection from="gneE6" to="gneE5" fromLane="0" toLane="0" via=":gneJ8_0_0" dir="l" state="M"/>
    <connection from="gneE7" to="gneE4" fromLane="0" toLane="0" via=":gneJ6_0_0" dir="r" state="M"/>
    <connection from="gneE8" to="gneE2" fromLane="0" toLane="0" via=":gneJ3_1_0" dir="l" state="m"/>
    <connection from="gneE9" to="gneE3" fromLane="0" toLane="0" via=":gneJ4_0_0" dir="r" state="m"/>
    <connection from="start" to="gneE0" fromLane="0" toLane="0" via=":gneJ1_0_0" dir="s" state="M"/>

    <connection from=":gneJ1_0" to="gneE0" fromLane="0" toLane="0" dir="s" state="M"/>
    <connection from=":gneJ2_0" to="gneE6" fromLane="0" toLane="0" dir="r" state="M"/>
    <connection from=":gneJ2_1" to="gneE1" fromLane="0" toLane="0" dir="s" state="M"/>
    <connection from=":gneJ2_2" to="gneE7" fromLane="0" toLane="0" dir="l" state="M"/>
    <connection from=":gneJ3_0" to="gneE2" fromLane="0" toLane="0" dir="s" state="M"/>
    <connection from=":gneJ3_1" to="gneE2" fromLane="0" toLane="0" dir="l" state="M"/>
    <connection from=":gneJ4_0" to="gneE3" fromLane="0" toLane="0" dir="r" state="M"/>
    <connection from=":gneJ4_1" to="gneE3" fromLane="0" toLane="0" dir="s" state="M"/>
    <connection from=":gneJ5_0" to="end" fromLane="0" toLane="0" dir="s" state="M"/>
    <connection from=":gneJ6_0" to="gneE4" fromLane="0" toLane="0" dir="r" state="M"/>
    <connection from=":gneJ7_0" to="gneE8" fromLane="0" toLane="0" dir="r" state="M"/>
    <connection from=":gneJ8_0" to="gneE5" fromLane="0" toLane="0" dir="l" state="M"/>
    <connection from=":gneJ9_0" to="gneE9" fromLane="0" toLane="0" dir="l" state="M"/>

</net>
